<?xml version="1.0" encoding="UTF-8"?>

<!-- generated on Wed Jan 23 19:09:23 2019 by SUMO netconvert Version 0.32.0
<?xml version="1.0" encoding="UTF-8"?>

<configuration xmlns:xsi="http://www.w3.org/2001/XMLSchema-instance" xsi:noNamespaceSchemaLocation="http://sumo.dlr.de/xsd/netconvertConfiguration.xsd">

    <input>
        <osm-files value="map.osm"/>
    </input>

    <output>
        <output-file value="map.net.xml"/>
    </output>

    <projection>
        <proj.utm value="true"/>
    </projection>

</configuration>
-->

<net version="0.27" xmlns:xsi="http://www.w3.org/2001/XMLSchema-instance" xsi:noNamespaceSchemaLocation="http://sumo.dlr.de/xsd/net_file.xsd">

    <location netOffset="-231426.30,-3335528.25" convBoundary="0.00,0.00,13868.04,17427.06" origBoundary="120.159701,30.122575,120.490438,30.326732" projParameter="+proj=utm +zone=51 +ellps=WGS84 +datum=WGS84 +units=m +no_defs"/>

    <type id="highway.bridleway" priority="1" numLanes="1" speed="2.78" allow="pedestrian" oneway="1" width="2.00"/>
    <type id="highway.bus_guideway" priority="1" numLanes="1" speed="27.78" allow="bus" oneway="1"/>
    <type id="highway.cycleway" priority="1" numLanes="1" speed="8.33" allow="bicycle" oneway="0" width="1.00"/>
    <type id="highway.footway" priority="1" numLanes="1" speed="2.78" allow="pedestrian" oneway="1" width="2.00"/>
    <type id="highway.ford" priority="1" numLanes="1" speed="2.78" allow="army" oneway="0"/>
    <type id="highway.living_street" priority="3" numLanes="1" speed="2.78" disallow="tram rail_urban rail rail_electric ship" oneway="0"/>
    <type id="highway.motorway" priority="13" numLanes="2" speed="44.44" allow="private emergency authority army vip passenger hov taxi bus coach delivery truck trailer motorcycle evehicle custom1 custom2" oneway="1"/>
    <type id="highway.motorway_link" priority="12" numLanes="1" speed="22.22" allow="private emergency authority army vip passenger hov taxi bus coach delivery truck trailer motorcycle evehicle custom1 custom2" oneway="1"/>
    <type id="highway.path" priority="1" numLanes="1" speed="2.78" allow="bicycle pedestrian" oneway="1" width="2.00"/>
    <type id="highway.pedestrian" priority="1" numLanes="1" speed="2.78" allow="pedestrian" oneway="1" width="2.00"/>
    <type id="highway.primary" priority="9" numLanes="2" speed="27.78" disallow="tram rail_urban rail rail_electric ship" oneway="0"/>
    <type id="highway.primary_link" priority="8" numLanes="1" speed="22.22" disallow="tram rail_urban rail rail_electric ship" oneway="0"/>
    <type id="highway.raceway" priority="14" numLanes="2" speed="83.33" allow="vip" oneway="0"/>
    <type id="highway.residential" priority="4" numLanes="1" speed="13.89" disallow="tram rail_urban rail rail_electric ship" oneway="0"/>
    <type id="highway.secondary" priority="7" numLanes="2" speed="27.78" disallow="tram rail_urban rail rail_electric ship" oneway="0"/>
    <type id="highway.secondary_link" priority="6" numLanes="1" speed="22.22" disallow="tram rail_urban rail rail_electric ship" oneway="0"/>
    <type id="highway.service" priority="2" numLanes="1" speed="5.56" allow="delivery bicycle pedestrian" oneway="0"/>
    <type id="highway.stairs" priority="1" numLanes="1" speed="1.39" allow="pedestrian" oneway="1" width="2.00"/>
    <type id="highway.step" priority="1" numLanes="1" speed="1.39" allow="pedestrian" oneway="1" width="2.00"/>
    <type id="highway.steps" priority="1" numLanes="1" speed="1.39" allow="pedestrian" oneway="1" width="2.00"/>
    <type id="highway.tertiary" priority="6" numLanes="1" speed="22.22" disallow="tram rail_urban rail rail_electric ship" oneway="0"/>
    <type id="highway.tertiary_link" priority="5" numLanes="1" speed="22.22" disallow="tram rail_urban rail rail_electric ship" oneway="0"/>
    <type id="highway.track" priority="1" numLanes="1" speed="5.56" disallow="tram rail_urban rail rail_electric ship" oneway="0"/>
    <type id="highway.trunk" priority="11" numLanes="2" speed="27.78" disallow="tram rail_urban rail rail_electric bicycle pedestrian ship" oneway="0"/>
    <type id="highway.trunk_link" priority="10" numLanes="1" speed="22.22" disallow="tram rail_urban rail rail_electric bicycle pedestrian ship" oneway="0"/>
    <type id="highway.unclassified" priority="5" numLanes="1" speed="13.89" disallow="tram rail_urban rail rail_electric ship" oneway="0"/>
    <type id="highway.unsurfaced" priority="1" numLanes="1" speed="8.33" disallow="tram rail_urban rail rail_electric ship" oneway="0"/>
    <type id="railway.light_rail" priority="15" numLanes="1" speed="27.78" allow="rail_urban" oneway="1"/>
    <type id="railway.preserved" priority="15" numLanes="1" speed="27.78" allow="rail" oneway="1"/>
    <type id="railway.rail" priority="15" numLanes="1" speed="83.33" allow="rail rail_electric" oneway="1"/>
    <type id="railway.subway" priority="15" numLanes="1" speed="27.78" allow="rail_urban" oneway="1"/>
    <type id="railway.tram" priority="15" numLanes="1" speed="13.89" allow="tram" oneway="1"/>

    <edge id=":1286462346_0" function="internal">
        <lane id=":1286462346_0_0" index="0" disallow="tram rail_urban rail rail_electric ship" speed="22.22" length="5.44" shape="4416.78,9384.83 4416.45,9383.39 4415.74,9382.38 4414.65,9381.80 4413.17,9381.64"/>
    </edge>
    <edge id=":1286462346_1" function="internal">
        <lane id=":1286462346_1_0" index="0" disallow="tram rail_urban rail rail_electric ship" speed="22.22" length="9.81" shape="4416.78,9384.83 4415.95,9375.05"/>
    </edge>
    <edge id=":1286462346_2" function="internal">
        <lane id=":1286462346_2_0" index="0" disallow="tram rail_urban rail rail_electric ship" speed="22.22" length="10.55" shape="4416.78,9384.83 4416.96,9381.92 4418.03,9379.82 4420.00,9378.50 4422.87,9377.99"/>
    </edge>
    <edge id=":1286462346_3" function="internal">
        <lane id=":1286462346_3_0" index="0" disallow="tram rail_urban rail rail_electric ship" speed="22.22" length="4.82" shape="4416.78,9384.83 4417.50,9383.53 4418.29,9383.05 4419.15,9383.39 4420.07,9384.56"/>
    </edge>
    <edge id=":1286462346_4" function="internal">
        <lane id=":1286462346_4_0" index="0" disallow="tram rail_urban rail rail_electric ship" speed="22.22" length="5.05" shape="4422.98,9381.28 4421.61,9381.53 4420.67,9382.16 4420.16,9383.17 4420.07,9384.56"/>
    </edge>
    <edge id=":1286462346_5" function="internal">
        <lane id=":1286462346_5_0" index="0" disallow="tram rail_urban rail rail_electric ship" speed="22.22" length="9.82" shape="4422.98,9381.28 4413.17,9381.64"/>
    </edge>
    <edge id=":1286462346_6" function="internal">
        <lane id=":1286462346_6_0" index="0" disallow="tram rail_urban rail rail_electric ship" speed="22.22" length="5.29" shape="4422.98,9381.28 4420.12,9380.98 4417.99,9379.84"/>
    </edge>
    <edge id=":1286462346_7" function="internal">
        <lane id=":1286462346_7_0" index="0" disallow="tram rail_urban rail rail_electric ship" speed="22.22" length="2.41" shape="4422.98,9381.28 4421.72,9380.50 4421.28,9379.69"/>
    </edge>
    <edge id=":1286462346_16" function="internal">
        <lane id=":1286462346_16_0" index="0" speed="22.22" length="5.30" shape="4417.99,9379.84 4416.60,9377.87 4415.95,9375.05"/>
    </edge>
    <edge id=":1286462346_17" function="internal">
        <lane id=":1286462346_17_0" index="0" speed="22.22" length="2.41" shape="4421.28,9379.69 4421.66,9378.85 4422.87,9377.99"/>
    </edge>
    <edge id=":1286462346_8" function="internal">
        <lane id=":1286462346_8_0" index="0" disallow="tram rail_urban rail rail_electric ship" speed="22.22" length="5.48" shape="4419.23,9374.76 4419.57,9376.22 4420.29,9377.24 4421.39,9377.83 4422.87,9377.99"/>
    </edge>
    <edge id=":1286462346_9" function="internal">
        <lane id=":1286462346_9_0" index="0" disallow="tram rail_urban rail rail_electric ship" speed="22.22" length="9.84" shape="4419.23,9374.76 4420.07,9384.56"/>
    </edge>
    <edge id=":1286462346_10" function="internal">
        <lane id=":1286462346_10_0" index="0" disallow="tram rail_urban rail rail_electric ship" speed="22.22" length="10.59" shape="4419.23,9374.76 4419.08,9377.68 4418.01,9379.80 4416.04,9381.12 4413.17,9381.64"/>
    </edge>
    <edge id=":1286462346_11" function="internal">
        <lane id=":1286462346_11_0" index="0" disallow="tram rail_urban rail rail_electric ship" speed="22.22" length="4.82" shape="4419.23,9374.76 4418.52,9376.07 4417.74,9376.55 4416.88,9376.21 4415.95,9375.05"/>
    </edge>
    <edge id=":1286462346_12" function="internal">
        <lane id=":1286462346_12_0" index="0" disallow="tram rail_urban rail rail_electric ship" speed="22.22" length="5.06" shape="4413.05,9378.35 4414.42,9378.10 4415.36,9377.46 4415.87,9376.45 4415.95,9375.05"/>
    </edge>
    <edge id=":1286462346_13" function="internal">
        <lane id=":1286462346_13_0" index="0" disallow="tram rail_urban rail rail_electric ship" speed="22.22" length="9.83" shape="4413.05,9378.35 4422.87,9377.99"/>
    </edge>
    <edge id=":1286462346_14" function="internal">
        <lane id=":1286462346_14_0" index="0" disallow="tram rail_urban rail rail_electric ship" speed="22.22" length="5.41" shape="4413.05,9378.35 4415.92,9378.64 4418.05,9379.78 4418.11,9379.86"/>
    </edge>
    <edge id=":1286462346_15" function="internal">
        <lane id=":1286462346_15_0" index="0" disallow="tram rail_urban rail rail_electric ship" speed="22.22" length="2.41" shape="4413.05,9378.35 4414.31,9379.12 4414.76,9379.93"/>
    </edge>
    <edge id=":1286462346_18" function="internal">
        <lane id=":1286462346_18_0" index="0" speed="22.22" length="5.19" shape="4418.11,9379.86 4419.43,9381.75 4420.07,9384.56"/>
    </edge>
    <edge id=":1286462346_19" function="internal">
        <lane id=":1286462346_19_0" index="0" speed="22.22" length="2.41" shape="4414.76,9379.93 4414.38,9380.77 4413.17,9381.64"/>
    </edge>
    <edge id=":1286462406_0" function="internal">
        <lane id=":1286462406_0_0" index="0" disallow="tram rail_urban rail rail_electric ship" speed="22.22" length="5.37" shape="5296.37,10936.64 5296.47,10938.17 5297.04,10939.16 5298.10,10939.62 5299.63,10939.53"/>
    </edge>
    <edge id=":1286462406_1" function="internal">
        <lane id=":1286462406_1_0" index="0" disallow="tram rail_urban rail rail_electric ship" speed="16.67" length="8.67" shape="5296.37,10936.64 5295.88,10945.18"/>
        <lane id=":1286462406_1_1" index="1" disallow="tram rail_urban rail rail_electric ship" speed="16.67" length="8.67" shape="5293.08,10936.37 5292.59,10945.14"/>
    </edge>
    <edge id=":1286462406_3" function="internal">
        <lane id=":1286462406_3_0" index="0" disallow="tram rail_urban rail rail_electric ship" speed="27.78" length="11.35" shape="5288.49,10941.82 5299.63,10939.53"/>
        <lane id=":1286462406_3_1" index="1" disallow="tram rail_urban rail rail_electric ship" speed="27.78" length="11.35" shape="5289.17,10945.05 5300.28,10942.77"/>
    </edge>
    <edge id=":1286462406_5" function="internal">
        <lane id=":1286462406_5_0" index="0" disallow="tram rail_urban rail rail_electric ship" speed="22.22" length="3.67" shape="5289.17,10945.05 5290.12,10944.83 5291.25,10944.64 5292.19,10944.67 5292.59,10945.14"/>
    </edge>
    <edge id=":1286462414_0" function="internal">
        <lane id=":1286462414_0_0" index="0" disallow="tram rail_urban rail rail_electric ship" speed="25.00" length="5.84" shape="5622.26,8745.19 5621.77,8743.61 5620.93,8742.54 5619.75,8741.98 5618.23,8741.92"/>
    </edge>
    <edge id=":1286462414_1" function="internal">
        <lane id=":1286462414_1_0" index="0" disallow="tram rail_urban rail rail_electric ship" speed="27.78" length="10.24" shape="5622.26,8745.19 5620.45,8735.12"/>
        <lane id=":1286462414_1_1" index="1" disallow="tram rail_urban rail rail_electric ship" speed="27.78" length="10.24" shape="5625.51,8744.62 5623.70,8734.53"/>
    </edge>
    <edge id=":1286462414_3" function="internal">
        <lane id=":1286462414_3_0" index="0" disallow="tram rail_urban rail rail_electric ship" speed="25.00" length="4.59" shape="5625.51,8744.62 5625.61,8741.60 5626.46,8740.27"/>
    </edge>
    <edge id=":1286462414_4" function="internal">
        <lane id=":1286462414_4_0" index="0" disallow="tram rail_urban rail rail_electric ship" speed="27.78" length="2.41" shape="5625.51,8744.62 5626.11,8743.25 5626.85,8742.71"/>
    </edge>
    <edge id=":1286462414_18" function="internal">
        <lane id=":1286462414_18_0" index="0" speed="25.00" length="8.84" shape="5626.46,8740.27 5627.09,8739.27 5629.96,8737.63 5634.21,8736.67"/>
    </edge>
    <edge id=":1286462414_19" function="internal">
        <lane id=":1286462414_19_0" index="0" speed="27.78" length="2.41" shape="5626.85,8742.71 5627.73,8742.97 5628.76,8744.04"/>
    </edge>
    <edge id=":1286462414_5" function="internal">
        <lane id=":1286462414_5_0" index="0" disallow="tram rail_urban rail rail_electric ship" speed="25.00" length="5.06" shape="5634.62,8739.95 5633.27,8740.31 5632.39,8741.03 5631.97,8742.08 5632.01,8743.47"/>
    </edge>
    <edge id=":1286462414_6" function="internal">
        <lane id=":1286462414_6_0" index="0" disallow="tram rail_urban rail rail_electric ship" speed="22.22" length="16.51" shape="5634.62,8739.95 5618.23,8741.92"/>
    </edge>
    <edge id=":1286462414_7" function="internal">
        <lane id=":1286462414_7_0" index="0" disallow="tram rail_urban rail rail_electric ship" speed="25.00" length="13.61" shape="5634.62,8739.95 5630.30,8740.06 5627.04,8739.20 5624.84,8737.35 5623.70,8734.53"/>
    </edge>
    <edge id=":1286462414_8" function="internal">
        <lane id=":1286462414_8_0" index="0" disallow="tram rail_urban rail rail_electric ship" speed="22.22" length="4.82" shape="5634.62,8739.95 5633.29,8739.28 5632.77,8738.51 5633.08,8737.64 5634.21,8736.67"/>
    </edge>
    <edge id=":1286462414_9" function="internal">
        <lane id=":1286462414_9_0" index="0" disallow="tram rail_urban rail rail_electric ship" speed="25.00" length="5.87" shape="5630.19,8733.34 5630.70,8734.95 5631.54,8736.05 5632.71,8736.62 5634.21,8736.67"/>
    </edge>
    <edge id=":1286462414_10" function="internal">
        <lane id=":1286462414_10_0" index="0" disallow="tram rail_urban rail rail_electric ship" speed="27.78" length="10.29" shape="5630.19,8733.34 5632.01,8743.47"/>
        <lane id=":1286462414_10_1" index="1" disallow="tram rail_urban rail rail_electric ship" speed="27.78" length="10.29" shape="5626.95,8733.93 5628.76,8744.04"/>
    </edge>
    <edge id=":1286462414_12" function="internal">
        <lane id=":1286462414_12_0" index="0" disallow="tram rail_urban rail rail_electric ship" speed="25.00" length="4.67" shape="5626.95,8733.93 5626.87,8736.99 5626.01,8738.36"/>
    </edge>
    <edge id=":1286462414_13" function="internal">
        <lane id=":1286462414_13_0" index="0" disallow="tram rail_urban rail rail_electric ship" speed="27.78" length="2.41" shape="5626.95,8733.93 5626.36,8735.30 5625.62,8735.85"/>
    </edge>
    <edge id=":1286462414_20" function="internal">
        <lane id=":1286462414_20_0" index="0" speed="25.00" length="8.87" shape="5626.01,8738.36 5625.39,8739.35 5622.51,8740.99 5618.23,8741.92"/>
    </edge>
    <edge id=":1286462414_21" function="internal">
        <lane id=":1286462414_21_0" index="0" speed="27.78" length="2.41" shape="5625.62,8735.85 5624.73,8735.59 5623.70,8734.53"/>
    </edge>
    <edge id=":1286462414_14" function="internal">
        <lane id=":1286462414_14_0" index="0" disallow="tram rail_urban rail rail_electric ship" speed="25.00" length="5.08" shape="5617.84,8738.64 5619.20,8738.28 5620.09,8737.58 5620.51,8736.52 5620.45,8735.12"/>
    </edge>
    <edge id=":1286462414_15" function="internal">
        <lane id=":1286462414_15_0" index="0" disallow="tram rail_urban rail rail_electric ship" speed="22.22" length="16.48" shape="5617.84,8738.64 5634.21,8736.67"/>
    </edge>
    <edge id=":1286462414_16" function="internal">
        <lane id=":1286462414_16_0" index="0" disallow="tram rail_urban rail rail_electric ship" speed="25.00" length="13.58" shape="5617.84,8738.64 5622.19,8738.56 5625.46,8739.43 5627.65,8741.26 5628.76,8744.04"/>
    </edge>
    <edge id=":1286462414_17" function="internal">
        <lane id=":1286462414_17_0" index="0" disallow="tram rail_urban rail rail_electric ship" speed="22.22" length="4.82" shape="5617.84,8738.64 5619.17,8739.32 5619.67,8740.09 5619.36,8740.96 5618.23,8741.92"/>
    </edge>
    <edge id=":1286462463_0" function="internal">
        <lane id=":1286462463_0_0" index="0" disallow="tram rail_urban rail rail_electric ship" speed="27.78" length="0.27" shape="4892.99,7759.45 4892.93,7759.06"/>
        <lane id=":1286462463_0_1" index="1" disallow="tram rail_urban rail rail_electric ship" speed="27.78" length="0.27" shape="4896.24,7758.89 4896.22,7758.76"/>
    </edge>
    <edge id=":1286462699_0" function="internal">
        <lane id=":1286462699_0_0" index="0" disallow="tram rail_urban rail rail_electric ship" speed="25.00" length="22.62" shape="4322.12,8230.45 4321.85,8226.20 4321.50,8220.99 4320.66,8214.93 4318.89,8208.14"/>
    </edge>
    <edge id=":1286462699_1" function="internal">
        <lane id=":1286462699_1_0" index="0" disallow="tram rail_urban rail rail_electric ship" speed="22.22" length="8.05" shape="4322.12,8230.45 4322.39,8228.97 4323.51,8227.87 4325.49,8227.15 4328.34,8226.80"/>
    </edge>
    <edge id=":1286462699_2" function="internal">
        <lane id=":1286462699_2_0" index="0" disallow="tram rail_urban rail rail_electric ship" speed="22.22" length="4.82" shape="4322.12,8230.45 4322.82,8229.14 4323.60,8228.65 4324.46,8228.97 4325.41,8230.12"/>
    </edge>
    <edge id=":1286462699_3" function="internal">
        <lane id=":1286462699_3_0" index="0" disallow="tram rail_urban rail rail_electric ship" speed="25.00" length="19.82" shape="4325.84,8207.74 4325.71,8216.14 4326.09,8222.11 4326.96,8225.67 4328.34,8226.80"/>
    </edge>
    <edge id=":1286462699_4" function="internal">
        <lane id=":1286462699_4_0" index="0" disallow="tram rail_urban rail rail_electric ship" speed="25.00" length="22.74" shape="4322.54,8207.62 4322.75,8214.65 4323.64,8220.75 4324.69,8225.91 4325.41,8230.12"/>
    </edge>
    <edge id=":1286462699_5" function="internal">
        <lane id=":1286462699_5_0" index="0" disallow="tram rail_urban rail rail_electric ship" speed="27.78" length="10.95" shape="4322.54,8207.62 4322.16,8211.51 4321.43,8212.89 4320.34,8211.77 4318.89,8208.14"/>
    </edge>
    <edge id=":1286462699_6" function="internal">
        <lane id=":1286462699_6_0" index="0" disallow="tram rail_urban rail rail_electric ship" speed="25.00" length="19.06" shape="4318.10,8227.25 4319.31,8226.06 4319.33,8222.66 4318.14,8217.03 4315.76,8209.18"/>
    </edge>
    <edge id=":1286462699_7" function="internal">
        <lane id=":1286462699_7_0" index="0" disallow="tram rail_urban rail rail_electric ship" speed="22.22" length="10.25" shape="4318.10,8227.25 4328.34,8226.80"/>
    </edge>
    <edge id=":1286462699_8" function="internal">
        <lane id=":1286462699_8_0" index="0" disallow="tram rail_urban rail rail_electric ship" speed="22.22" length="8.55" shape="4318.10,8227.25 4321.18,8227.32 4323.42,8227.83 4324.83,8228.76 4325.41,8230.12"/>
    </edge>
    <edge id=":1286462721_0" function="internal">
        <lane id=":1286462721_0_0" index="0" disallow="tram rail_urban rail rail_electric ship" speed="25.00" length="5.02" shape="5713.77,9257.28 5713.34,9255.98 5712.59,9255.13 5711.53,9254.73 5710.14,9254.78"/>
    </edge>
    <edge id=":1286462721_1" function="internal">
        <lane id=":1286462721_1_0" index="0" disallow="tram rail_urban rail rail_electric ship" speed="27.78" length="9.52" shape="5713.77,9257.28 5712.08,9247.92"/>
        <lane id=":1286462721_1_1" index="1" disallow="tram rail_urban rail rail_electric ship" speed="27.78" length="9.52" shape="5717.02,9256.69 5715.32,9247.33"/>
    </edge>
    <edge id=":1286462721_3" function="internal">
        <lane id=":1286462721_3_0" index="0" disallow="tram rail_urban rail rail_electric ship" speed="25.00" length="4.47" shape="5717.02,9256.69 5717.12,9253.84 5717.98,9252.47"/>
    </edge>
    <edge id=":1286462721_4" function="internal">
        <lane id=":1286462721_4_0" index="0" disallow="tram rail_urban rail rail_electric ship" speed="27.78" length="2.41" shape="5717.02,9256.69 5717.61,9255.33 5718.35,9254.78"/>
    </edge>
    <edge id=":1286462721_18" function="internal">
        <lane id=":1286462721_18_0" index="0" speed="25.00" length="8.63" shape="5717.98,9252.47 5718.56,9251.55 5721.33,9249.80 5725.43,9248.62"/>
    </edge>
    <edge id=":1286462721_19" function="internal">
        <lane id=":1286462721_19_0" index="0" speed="27.78" length="2.41" shape="5718.35,9254.78 5719.24,9255.04 5720.27,9256.11"/>
    </edge>
    <edge id=":1286462721_5" function="internal">
        <lane id=":1286462721_5_0" index="0" disallow="tram rail_urban rail rail_electric ship" speed="25.00" length="5.07" shape="5726.05,9251.86 5724.73,9252.31 5723.87,9253.07 5723.47,9254.14 5723.52,9255.53"/>
    </edge>
    <edge id=":1286462721_6" function="internal">
        <lane id=":1286462721_6_0" index="0" disallow="tram rail_urban rail rail_electric ship" speed="22.22" length="16.17" shape="5726.05,9251.86 5710.14,9254.78"/>
    </edge>
    <edge id=":1286462721_7" function="internal">
        <lane id=":1286462721_7_0" index="0" disallow="tram rail_urban rail rail_electric ship" speed="25.00" length="13.14" shape="5726.05,9251.86 5721.79,9252.26 5718.58,9251.64 5716.43,9249.99 5715.32,9247.33"/>
    </edge>
    <edge id=":1286462721_8" function="internal">
        <lane id=":1286462721_8_0" index="0" disallow="tram rail_urban rail rail_electric ship" speed="22.22" length="4.82" shape="5726.05,9251.86 5724.68,9251.28 5724.12,9250.55 5724.37,9249.66 5725.43,9248.62"/>
    </edge>
    <edge id=":1286462721_9" function="internal">
        <lane id=":1286462721_9_0" index="0" disallow="tram rail_urban rail rail_electric ship" speed="25.00" length="5.01" shape="5721.81,9246.14 5722.25,9247.44 5723.00,9248.29 5724.06,9248.68 5725.43,9248.62"/>
    </edge>
    <edge id=":1286462721_10" function="internal">
        <lane id=":1286462721_10_0" index="0" disallow="tram rail_urban rail rail_electric ship" speed="27.78" length="9.54" shape="5721.81,9246.14 5723.52,9255.53"/>
        <lane id=":1286462721_10_1" index="1" disallow="tram rail_urban rail rail_electric ship" speed="27.78" length="9.54" shape="5718.57,9246.73 5720.27,9256.11"/>
    </edge>
    <edge id=":1286462721_12" function="internal">
        <lane id=":1286462721_12_0" index="0" disallow="tram rail_urban rail rail_electric ship" speed="25.00" length="4.52" shape="5718.57,9246.73 5718.48,9249.62 5717.61,9251.00"/>
    </edge>
    <edge id=":1286462721_13" function="internal">
        <lane id=":1286462721_13_0" index="0" disallow="tram rail_urban rail rail_electric ship" speed="27.78" length="2.41" shape="5718.57,9246.73 5717.98,9248.10 5717.24,9248.65"/>
    </edge>
    <edge id=":1286462721_20" function="internal">
        <lane id=":1286462721_20_0" index="0" speed="25.00" length="8.62" shape="5717.61,9251.00 5717.04,9251.92 5714.27,9253.64 5710.14,9254.78"/>
    </edge>
    <edge id=":1286462721_21" function="internal">
        <lane id=":1286462721_21_0" index="0" speed="27.78" length="2.41" shape="5717.24,9248.65 5716.36,9248.40 5715.32,9247.33"/>
    </edge>
    <edge id=":1286462721_14" function="internal">
        <lane id=":1286462721_14_0" index="0" disallow="tram rail_urban rail rail_electric ship" speed="25.00" length="5.01" shape="5709.57,9251.53 5710.88,9251.10 5711.73,9250.35 5712.13,9249.30 5712.08,9247.92"/>
    </edge>
    <edge id=":1286462721_15" function="internal">
        <lane id=":1286462721_15_0" index="0" disallow="tram rail_urban rail rail_electric ship" speed="22.22" length="16.12" shape="5709.57,9251.53 5725.43,9248.62"/>
    </edge>
    <edge id=":1286462721_16" function="internal">
        <lane id=":1286462721_16_0" index="0" disallow="tram rail_urban rail rail_electric ship" speed="25.00" length="13.10" shape="5709.57,9251.53 5713.83,9251.18 5717.03,9251.83 5719.18,9253.47 5720.27,9256.11"/>
    </edge>
    <edge id=":1286462721_17" function="internal">
        <lane id=":1286462721_17_0" index="0" disallow="tram rail_urban rail rail_electric ship" speed="22.22" length="4.82" shape="5709.57,9251.53 5710.93,9252.12 5711.48,9252.86 5711.22,9253.75 5710.14,9254.78"/>
    </edge>
    <edge id=":1286462788_0" function="internal">
        <lane id=":1286462788_0_0" index="0" disallow="tram rail_urban rail rail_electric ship" speed="25.00" length="5.71" shape="4371.82,8840.72 4371.48,8839.27 4370.72,8838.25 4369.53,8837.66 4367.91,8837.51"/>
    </edge>
    <edge id=":1286462788_1" function="internal">
        <lane id=":1286462788_1_0" index="0" disallow="tram rail_urban rail rail_electric ship" speed="22.22" length="16.44" shape="4371.82,8840.72 4370.51,8824.34"/>
    </edge>
    <edge id=":1286462788_2" function="internal">
        <lane id=":1286462788_2_0" index="0" disallow="tram rail_urban rail rail_electric ship" speed="25.00" length="13.44" shape="4371.82,8840.72 4371.91,8836.37 4372.94,8833.23 4374.93,8831.31 4377.87,8830.60"/>
    </edge>
    <edge id=":1286462788_3" function="internal">
        <lane id=":1286462788_3_0" index="0" disallow="tram rail_urban rail rail_electric ship" speed="22.22" length="4.82" shape="4371.82,8840.72 4372.55,8839.42 4373.34,8838.95 4374.19,8839.29 4375.11,8840.46"/>
    </edge>
    <edge id=":1286462788_4" function="internal">
        <lane id=":1286462788_4_0" index="0" disallow="tram rail_urban rail rail_electric ship" speed="25.00" length="5.06" shape="4378.05,8837.20 4376.67,8837.44 4375.72,8838.06 4375.20,8839.07 4375.11,8840.46"/>
    </edge>
    <edge id=":1286462788_5" function="internal">
        <lane id=":1286462788_5_0" index="0" disallow="tram rail_urban rail rail_electric ship" speed="27.78" length="10.15" shape="4378.05,8837.20 4367.91,8837.51"/>
        <lane id=":1286462788_5_1" index="1" disallow="tram rail_urban rail rail_electric ship" speed="27.78" length="10.15" shape="4377.96,8833.90 4367.81,8834.21"/>
    </edge>
    <edge id=":1286462788_7" function="internal">
        <lane id=":1286462788_7_0" index="0" disallow="tram rail_urban rail rail_electric ship" speed="25.00" length="4.68" shape="4377.96,8833.90 4375.00,8833.37 4373.69,8832.33"/>
    </edge>
    <edge id=":1286462788_8" function="internal">
        <lane id=":1286462788_8_0" index="0" disallow="tram rail_urban rail rail_electric ship" speed="27.78" length="2.41" shape="4377.96,8833.90 4376.70,8833.11 4376.26,8832.30"/>
    </edge>
    <edge id=":1286462788_18" function="internal">
        <lane id=":1286462788_18_0" index="0" speed="25.00" length="8.85" shape="4373.69,8832.33 4372.77,8831.60 4371.28,8828.59 4370.51,8824.34"/>
    </edge>
    <edge id=":1286462788_19" function="internal">
        <lane id=":1286462788_19_0" index="0" speed="27.78" length="2.41" shape="4376.26,8832.30 4376.65,8831.46 4377.87,8830.60"/>
    </edge>
    <edge id=":1286462788_9" function="internal">
        <lane id=":1286462788_9_0" index="0" disallow="tram rail_urban rail rail_electric ship" speed="25.00" length="5.77" shape="4373.80,8824.07 4374.15,8825.52 4374.93,8826.55 4376.14,8827.14 4377.77,8827.31"/>
    </edge>
    <edge id=":1286462788_10" function="internal">
        <lane id=":1286462788_10_0" index="0" disallow="tram rail_urban rail rail_electric ship" speed="22.22" length="16.45" shape="4373.80,8824.07 4375.11,8840.46"/>
    </edge>
    <edge id=":1286462788_11" function="internal">
        <lane id=":1286462788_11_0" index="0" disallow="tram rail_urban rail rail_electric ship" speed="25.00" length="13.43" shape="4373.80,8824.07 4373.73,8828.42 4372.71,8831.56 4370.73,8833.49 4367.81,8834.21"/>
    </edge>
    <edge id=":1286462788_12" function="internal">
        <lane id=":1286462788_12_0" index="0" disallow="tram rail_urban rail rail_electric ship" speed="22.22" length="4.82" shape="4373.80,8824.07 4373.08,8825.37 4372.29,8825.85 4371.44,8825.50 4370.51,8824.34"/>
    </edge>
    <edge id=":1286462788_13" function="internal">
        <lane id=":1286462788_13_0" index="0" disallow="tram rail_urban rail rail_electric ship" speed="25.00" length="5.06" shape="4367.59,8827.61 4368.97,8827.37 4369.91,8826.74 4370.43,8825.73 4370.51,8824.34"/>
    </edge>
    <edge id=":1286462788_14" function="internal">
        <lane id=":1286462788_14_0" index="0" disallow="tram rail_urban rail rail_electric ship" speed="27.78" length="10.18" shape="4367.59,8827.61 4377.77,8827.31"/>
        <lane id=":1286462788_14_1" index="1" disallow="tram rail_urban rail rail_electric ship" speed="27.78" length="10.18" shape="4367.70,8830.91 4377.87,8830.60"/>
    </edge>
    <edge id=":1286462788_16" function="internal">
        <lane id=":1286462788_16_0" index="0" disallow="tram rail_urban rail rail_electric ship" speed="25.00" length="4.70" shape="4367.70,8830.91 4370.66,8831.43 4371.99,8832.48"/>
    </edge>
    <edge id=":1286462788_17" function="internal">
        <lane id=":1286462788_17_0" index="0" disallow="tram rail_urban rail rail_electric ship" speed="27.78" length="2.41" shape="4367.70,8830.91 4368.96,8831.69 4369.40,8832.50"/>
    </edge>
    <edge id=":1286462788_20" function="internal">
        <lane id=":1286462788_20_0" index="0" speed="25.00" length="8.82" shape="4371.99,8832.48 4372.88,8833.19 4374.36,8836.20 4375.11,8840.46"/>
    </edge>
    <edge id=":1286462788_21" function="internal">
        <lane id=":1286462788_21_0" index="0" speed="27.78" length="2.41" shape="4369.40,8832.50 4369.02,8833.34 4367.81,8834.21"/>
    </edge>
    <edge id=":1286462908_0" function="internal">