<configuration>
    <input>
      <net-file value="forth.net.xml"/>
      <route-files value="shixin_shanyin_high.rou.xml"/>
      <additional-files value ="shixin_shanyin.det.xml"/>
    </input>
</configuration>

