<edges>
    <edge from='n22' to='n21' id='gneE7_0' priority='3' numLanes='5' type="highway.secondary"/>
    <edge from='n21' to='n22' id='-gneE7_0' priority='3' numLanes='3' type="highway.secondary"/>

    <edge from='n24' to='n21' id='gneE7_1' priority='3' numLanes='6' type="highway.secondary"/>
    <edge from='n21' to='n24' id='-gneE7_1' priority='3' numLanes='4' type="highway.secondary"/>

    <edge from='n20' to='n21' id='gneE7_2' priority='3' numLanes='8' type="highway.secondary"/>
    <edge from='n21' to='n20' id='-gneE7_2' priority='3' numLanes='3' type="highway.secondary"/>

    <edge from='n23' to='n21' id='gneE7_3' priority='3' numLanes='6' type="highway.secondary"/>
    <edge from='n21' to='n23' id='-gneE7_3' priority='3' numLanes='4' type="highway.secondary"/>
</edges>
