<?xml version="1.0" encoding="UTF-8"?>

<!-- generated on Wed Jan 23 20:05:10 2019 by SUMO netconvert Version 0.32.0
<?xml version="1.0" encoding="UTF-8"?>

<configuration xmlns:xsi="http://www.w3.org/2001/XMLSchema-instance" xsi:noNamespaceSchemaLocation="http://sumo.dlr.de/xsd/netconvertConfiguration.xsd">

    <input>
        <node-files value="road.nod.xml"/>
        <edge-files value="road.edg.xml"/>
        <type-files value="road.typ.xml"/>
    </input>

    <output>
        <output-file value="road.net.xml"/>
    </output>

</configuration>
-->

<net version="0.27" xmlns:xsi="http://www.w3.org/2001/XMLSchema-instance" xsi:noNamespaceSchemaLocation="http://sumo.dlr.de/xsd/net_file.xsd">

    <location netOffset="0.00,0.00" convBoundary="0.00,0.00,800.00,4149.00" origBoundary="0.00,0.00,800.00,4149.00" projParameter="!"/>

    <type id="highway.bridleway" priority="1" numLanes="1" speed="2.78" allow="pedestrian" oneway="1" width="2.00"/>
    <type id="highway.bus_guideway" priority="1" numLanes="1" speed="8.33" allow="bus" oneway="1"/>
    <type id="highway.cycleway" priority="1" numLanes="1" speed="5.56" allow="bicycle" oneway="0" width="1.00"/>
    <type id="highway.footway" priority="1" numLanes="1" speed="2.78" allow="pedestrian" oneway="1" width="2.00"/>
    <type id="highway.ford" priority="1" numLanes="1" speed="2.78" allow="army" oneway="0"/>
    <type id="highway.living_street" priority="3" numLanes="1" speed="2.78" disallow="tram rail_urban rail rail_electric ship" oneway="0"/>
    <type id="highway.motorway" priority="13" numLanes="2" speed="44.44" allow="private emergency authority army vip passenger hov taxi bus coach delivery truck trailer motorcycle evehicle custom1 custom2" oneway="1"/>
    <type id="highway.motorway_link" priority="12" numLanes="1" speed="22.22" allow="private emergency authority army vip passenger hov taxi bus coach delivery truck trailer motorcycle evehicle custom1 custom2" oneway="1"/>
    <type id="highway.path" priority="1" numLanes="1" speed="2.78" allow="bicycle pedestrian" oneway="1" width="2.00"/>
    <type id="highway.pedestrian" priority="1" numLanes="1" speed="2.78" allow="pedestrian" oneway="1" width="2.00"/>
    <type id="highway.primary" priority="9" numLanes="2" speed="27.78" disallow="tram rail_urban rail rail_electric ship" oneway="0"/>
    <type id="highway.primary_link" priority="8" numLanes="1" speed="22.22" disallow="tram rail_urban rail rail_electric ship" oneway="0"/>
    <type id="highway.raceway" priority="14" numLanes="2" speed="83.33" allow="vip" oneway="0"/>
    <type id="highway.residential" priority="4" numLanes="1" speed="13.89" disallow="tram rail_urban rail rail_electric ship" oneway="0"/>
    <type id="highway.secondary" priority="7" numLanes="2" speed="27.78" disallow="tram rail_urban rail rail_electric ship" oneway="0"/>
    <type id="highway.secondary_link" priority="6" numLanes="1" speed="22.22" disallow="tram rail_urban rail rail_electric ship" oneway="0"/>
    <type id="highway.service" priority="2" numLanes="1" speed="5.56" allow="delivery bicycle pedestrian" oneway="0"/>
    <type id="highway.services" priority="1" numLanes="1" speed="8.33" disallow="tram rail_urban rail rail_electric ship" oneway="0"/>
    <type id="highway.stairs" priority="1" numLanes="1" speed="1.39" allow="pedestrian" oneway="1" width="2.00"/>
    <type id="highway.step" priority="1" numLanes="1" speed="1.39" allow="pedestrian" oneway="1" width="2.00"/>
    <type id="highway.steps" priority="1" numLanes="1" speed="1.39" allow="pedestrian" oneway="1" width="2.00"/>
    <type id="highway.tertiary" priority="6" numLanes="1" speed="22.22" disallow="tram rail_urban rail rail_electric ship" oneway="0"/>
    <type id="highway.tertiary_link" priority="5" numLanes="1" speed="22.22" disallow="tram rail_urban rail rail_electric ship" oneway="0"/>
    <type id="highway.track" priority="1" numLanes="1" speed="5.56" disallow="tram rail_urban rail rail_electric ship" oneway="0"/>
    <type id="highway.trunk" priority="11" numLanes="2" speed="27.78" disallow="tram rail_urban rail rail_electric bicycle pedestrian ship" oneway="0"/>
    <type id="highway.trunk_link" priority="10" numLanes="1" speed="22.22" disallow="tram rail_urban rail rail_electric bicycle pedestrian ship" oneway="0"/>
    <type id="highway.unclassified" priority="5" numLanes="1" speed="13.89" disallow="tram rail_urban rail rail_electric ship" oneway="0"/>
    <type id="highway.unsurfaced" priority="1" numLanes="1" speed="8.33" disallow="tram rail_urban rail rail_electric ship" oneway="0"/>
    <type id="railway.light_rail" priority="15" numLanes="1" speed="27.78" allow="rail_urban" oneway="1"/>
    <type id="railway.preserved" priority="15" numLanes="1" speed="27.78" allow="rail" oneway="1"/>
    <type id="railway.rail" priority="15" numLanes="1" speed="83.33" allow="rail rail_electric" oneway="1"/>
    <type id="railway.subway" priority="15" numLanes="1" speed="27.78" allow="rail_urban" oneway="1"/>
    <type id="railway.tram" priority="15" numLanes="1" speed="13.89" allow="tram" oneway="1"/>

    <edge id=":n1_0" function="internal">
        <lane id=":n1_0_0" index="0" disallow="tram rail_urban rail rail_electric ship" speed="27.78" length="4.82" shape="398.35,0.00 399.17,-1.24 400.00,-1.65 400.82,-1.24 401.65,0.00"/>
    </edge>
    <edge id=":n10_0" function="internal">
        <lane id=":n10_0_0" index="0" disallow="tram rail_urban rail rail_electric ship" speed="27.78" length="4.82" shape="800.00,1567.35 801.24,1568.18 801.65,1569.00 801.24,1569.83 800.00,1570.65"/>
    </edge>
    <edge id=":n11_0" function="internal">
        <lane id=":n11_0_0" index="0" disallow="tram rail_urban rail rail_electric ship" speed="27.78" length="4.82" shape="0.00,2070.65 -1.24,2069.83 -1.65,2069.00 -1.24,2068.17 0.00,2067.35"/>
    </edge>
    <edge id=":n12_0" function="internal">
        <lane id=":n12_0_0" index="0" disallow="tram rail_urban rail rail_electric ship" speed="27.78" length="7.85" shape="381.85,2080.35 381.66,2077.55 381.08,2075.55 380.11,2074.35 378.75,2073.95"/>
    </edge>
    <edge id=":n12_1" function="internal">
        <lane id=":n12_1_0" index="0" disallow="tram rail_urban rail rail_electric ship" speed="27.78" length="23.02" shape="385.15,2080.35 385.67,2073.58 386.80,2069.00 387.93,2064.42 388.45,2057.65"/>
        <lane id=":n12_1_1" index="1" disallow="tram rail_urban rail rail_electric ship" speed="27.78" length="23.02" shape="388.45,2080.35 388.97,2073.58 390.10,2069.00 391.23,2064.42 391.75,2057.65"/>
        <lane id=":n12_1_2" index="2" disallow="tram rail_urban rail rail_electric ship" speed="27.78" length="23.02" shape="391.75,2080.35 392.27,2073.58 393.40,2069.00 394.53,2064.42 395.05,2057.65"/>
        <lane id=":n12_1_3" index="3" disallow="tram rail_urban rail rail_electric ship" speed="27.78" length="23.02" shape="395.05,2080.35 395.57,2073.58 396.70,2069.00 397.83,2064.42 398.35,2057.65"/>
    </edge>
    <edge id=":n12_5" function="internal">
        <lane id=":n12_5_0" index="0" disallow="tram rail_urban rail rail_electric ship" speed="27.78" length="6.90" shape="398.35,2080.35 399.78,2074.66 400.53,2073.95"/>
    </edge>
    <edge id=":n12_6" function="internal">
        <lane id=":n12_6_0" index="0" disallow="tram rail_urban rail rail_electric ship" speed="27.78" length="2.59" shape="398.35,2080.35 399.17,2079.11 400.00,2078.70 400.16,2078.78"/>
    </edge>
    <edge id=":n12_24" function="internal">
        <lane id=":n12_24_0" index="0" speed="27.78" length="22.49" shape="400.53,2073.95 404.08,2070.60 411.23,2068.16 421.25,2067.35"/>
    </edge>
    <edge id=":n12_25" function="internal">
        <lane id=":n12_25_0" index="0" speed="27.78" length="2.23" shape="400.16,2078.78 400.82,2079.11 401.65,2080.35"/>
    </edge>
    <edge id=":n12_7" function="internal">
        <lane id=":n12_7_0" index="0" disallow="tram rail_urban rail rail_electric ship" speed="27.78" length="10.88" shape="421.25,2077.25 417.01,2077.44 413.97,2078.03 412.16,2078.99 411.55,2080.35"/>
    </edge>
    <edge id=":n12_8" function="internal">
        <lane id=":n12_8_0" index="0" disallow="tram rail_urban rail rail_electric ship" speed="27.78" length="42.63" shape="421.25,2077.25 378.75,2073.95"/>
        <lane id=":n12_8_1" index="1" disallow="tram rail_urban rail rail_electric ship" speed="27.78" length="42.63" shape="421.25,2073.95 378.75,2070.65"/>
    </edge>
    <edge id=":n12_10" function="internal">
        <lane id=":n12_10_0" index="0" disallow="tram rail_urban rail rail_electric ship" speed="27.78" length="16.72" shape="421.25,2070.65 411.23,2069.84 404.92,2067.69"/>
    </edge>
    <edge id=":n12_11" function="internal">
        <lane id=":n12_11_0" index="0" disallow="tram rail_urban rail rail_electric ship" speed="27.78" length="2.60" shape="421.25,2070.65 420.01,2069.83 419.60,2069.00 419.68,2068.83"/>
    </edge>
    <edge id=":n12_26" function="internal">
        <lane id=":n12_26_0" index="0" speed="27.78" length="12.66" shape="404.92,2067.69 404.08,2067.40 399.78,2063.34 398.35,2057.65"/>
    </edge>
    <edge id=":n12_27" function="internal">
        <lane id=":n12_27_0" index="0" speed="27.78" length="2.22" shape="419.68,2068.83 420.01,2068.17 421.25,2067.35"/>
    </edge>
    <edge id=":n12_12" function="internal">
        <lane id=":n12_12_0" index="0" disallow="tram rail_urban rail rail_electric ship" speed="27.78" length="7.85" shape="418.15,2057.65 418.34,2060.45 418.92,2062.45 419.89,2063.65 421.25,2064.05"/>
    </edge>
    <edge id=":n12_13" function="internal">
        <lane id=":n12_13_0" index="0" disallow="tram rail_urban rail rail_electric ship" speed="27.78" length="23.02" shape="414.85,2057.65 414.33,2064.42 413.20,2069.00 412.07,2073.58 411.55,2080.35"/>
        <lane id=":n12_13_1" index="1" disallow="tram rail_urban rail rail_electric ship" speed="27.78" length="23.02" shape="411.55,2057.65 411.03,2064.42 409.90,2069.00 408.77,2073.58 408.25,2080.35"/>
        <lane id=":n12_13_2" index="2" disallow="tram rail_urban rail rail_electric ship" speed="27.78" length="23.02" shape="408.25,2057.65 407.73,2064.42 406.60,2069.00 405.47,2073.58 404.95,2080.35"/>
        <lane id=":n12_13_3" index="3" disallow="tram rail_urban rail rail_electric ship" speed="27.78" length="23.02" shape="404.95,2057.65 404.43,2064.42 403.30,2069.00 402.17,2073.58 401.65,2080.35"/>
    </edge>
    <edge id=":n12_17" function="internal">
        <lane id=":n12_17_0" index="0" disallow="tram rail_urban rail rail_electric ship" speed="27.78" length="6.90" shape="401.65,2057.65 400.22,2063.34 399.47,2064.05"/>
    </edge>
    <edge id=":n12_18" function="internal">
        <lane id=":n12_18_0" index="0" disallow="tram rail_urban rail rail_electric ship" speed="27.78" length="2.59" shape="401.65,2057.65 400.83,2058.89 400.00,2059.30 399.84,2059.22"/>
    </edge>
    <edge id=":n12_28" function="internal">
        <lane id=":n12_28_0" index="0" speed="27.78" length="22.49" shape="399.47,2064.05 395.92,2067.40 388.77,2069.84 378.75,2070.65"/>
    </edge>
    <edge id=":n12_29" function="internal">
        <lane id=":n12_29_0" index="0" speed="27.78" length="2.23" shape="399.84,2059.22 399.18,2058.89 398.35,2057.65"/>
    </edge>
    <edge id=":n12_19" function="internal">
        <lane id=":n12_19_0" index="0" disallow="tram rail_urban rail rail_electric ship" speed="27.78" length="10.88" shape="378.75,2060.75 382.99,2060.56 386.03,2059.97 387.84,2059.01 388.45,2057.65"/>
    </edge>
    <edge id=":n12_20" function="internal">
        <lane id=":n12_20_0" index="0" disallow="tram rail_urban rail rail_electric ship" speed="27.78" length="42.63" shape="378.75,2060.75 421.25,2064.05"/>
        <lane id=":n12_20_1" index="1" disallow="tram rail_urban rail rail_electric ship" speed="27.78" length="42.63" shape="378.75,2064.05 421.25,2067.35"/>
    </edge>
    <edge id=":n12_22" function="internal">
        <lane id=":n12_22_0" index="0" disallow="tram rail_urban rail rail_electric ship" speed="27.78" length="16.72" shape="378.75,2067.35 388.77,2068.16 395.08,2070.31"/>
    </edge>
    <edge id=":n12_23" function="internal">
        <lane id=":n12_23_0" index="0" disallow="tram rail_urban rail rail_electric ship" speed="27.78" length="2.60" shape="378.75,2067.35 379.99,2068.17 380.40,2069.00 380.32,2069.17"/>
    </edge>
    <edge id=":n12_30" function="internal">
        <lane id=":n12_30_0" index="0" speed="27.78" length="12.66" shape="395.08,2070.31 395.92,2070.60 400.22,2074.66 401.65,2080.35"/>
    </edge>
    <edge id=":n12_31" function="internal">
        <lane id=":n12_31_0" index="0" speed="27.78" length="2.22" shape="380.32,2069.17 379.99,2069.83 378.75,2070.65"/>
    </edge>
    <edge id=":n13_0" function="internal">
        <lane id=":n13_0_0" index="0" disallow="tram rail_urban rail rail_electric ship" speed="27.78" length="4.82" shape="800.00,2067.35 801.24,2068.17 801.65,2069.00 801.24,2069.83 800.00,2070.65"/>
    </edge>
    <edge id=":n14_0" function="internal">
        <lane id=":n14_0_0" index="0" disallow="tram rail_urban rail rail_electric ship" speed="27.78" length="4.82" shape="0.00,2820.65 -1.24,2819.83 -1.65,2819.00 -1.24,2818.18 0.00,2817.35"/>
    </edge>
    <edge id=":n15_0" function="internal">
        <lane id=":n15_0_0" index="0" disallow="tram rail_urban rail rail_electric ship" speed="27.78" length="7.85" shape="381.85,2830.35 381.66,2827.55 381.08,2825.55 380.11,2824.35 378.75,2823.95"/>
    </edge>
    <edge id=":n15_1" function="internal">
        <lane id=":n15_1_0" index="0" disallow="tram rail_urban rail rail_electric ship" speed="27.78" length="26.28" shape="385.15,2830.35 385.67,2822.60 386.80,2817.35 387.93,2812.10 388.45,2804.35"/>
        <lane id=":n15_1_1" index="1" disallow="tram rail_urban rail rail_electric ship" speed="27.78" length="26.28" shape="388.45,2830.35 388.97,2822.60 390.10,2817.35 391.23,2812.10 391.75,2804.35"/>
        <lane id=":n15_1_2" index="2" disallow="tram rail_urban rail rail_electric ship" speed="27.78" length="26.28" shape="391.75,2830.35 392.27,2822.60 393.40,2817.35 394.53,2812.10 395.05,2804.35"/>
        <lane id=":n15_1_3" index="3" disallow="tram rail_urban rail rail_electric ship" speed="27.78" length="26.28" shape="395.05,2830.35 395.57,2822.60 396.70,2817.35 397.83,2812.10 398.35,2804.35"/>
    </edge>
    <edge id=":n15_5" function="internal">
        <lane id=":n15_5_0" index="0" disallow="tram rail_urban rail rail_electric ship" speed="27.78" length="6.81" shape="398.35,2830.35 399.78,2824.66 400.47,2824.01"/>
    </edge>
    <edge id=":n15_6" function="internal">
        <lane id=":n15_6_0" index="0" disallow="tram rail_urban rail rail_electric ship" speed="27.78" length="2.58" shape="398.35,2830.35 399.17,2829.11 400.00,2828.70 400.15,2828.78"/>
    </edge>
    <edge id=":n15_24" function="internal">
        <lane id=":n15_24_0" index="0" speed="27.78" length="22.58" shape="400.47,2824.01 404.08,2820.60 411.23,2818.16 421.25,2817.35"/>
    </edge>
    <edge id=":n15_25" function="internal">
        <lane id=":n15_25_0" index="0" speed="27.78" length="2.24" shape="400.15,2828.78 400.82,2829.11 401.65,2830.35"/>
    </edge>
    <edge id=":n15_7" function="internal">
        <lane id=":n15_7_0" index="0" disallow="tram rail_urban rail rail_electric ship" speed="27.78" length="10.88" shape="421.25,2827.25 417.01,2827.44 413.97,2828.03 412.16,2828.99 411.55,2830.35"/>
    </edge>
    <edge id=":n15_8" function="internal">
        <lane id=":n15_8_0" index="0" disallow="tram rail_urban rail rail_electric ship" speed="27.78" length="42.63" shape="421.25,2827.25 378.75,2823.95"/>
        <lane id=":n15_8_1" index="1" disallow="tram rail_urban rail rail_electric ship" speed="27.78" length="42.63" shape="421.25,2823.95 378.75,2820.65"/>
    </edge>
    <edge id=":n15_10" function="internal">
        <lane id=":n15_10_0" index="0" disallow="tram rail_urban rail rail_electric ship" speed="27.78" length="19.16" shape="421.25,2820.65 411.23,2819.63 404.08,2816.58 403.24,2815.58"/>
    </edge>
    <edge id=":n15_11" function="internal">
        <lane id=":n15_11_0" index="0" disallow="tram rail_urban rail rail_electric ship" speed="27.78" length="2.67" shape="421.25,2820.65 420.01,2819.83 419.60,2819.00 419.72,2818.77"/>
    </edge>
    <edge id=":n15_26" function="internal">
        <lane id=":n15_26_0" index="0" speed="27.78" length="12.63" shape="403.24,2815.58 399.78,2811.48 398.35,2804.35"/>
    </edge>
    <edge id=":n15_27" function="internal">
        <lane id=":n15_27_0" index="0" speed="27.78" length="2.15" shape="419.72,2818.77 420.01,2818.18 421.25,2817.35"/>
    </edge>
    <edge id=":n15_12" function="internal">
        <lane id=":n15_12_0" index="0" disallow="tram rail_urban rail rail_electric ship" speed="27.78" length="10.88" shape="418.15,2804.35 418.34,2808.59 418.92,2811.62 419.89,2813.44 421.25,2814.05"/>
    </edge>
    <edge id=":n15_13" function="internal">
        <lane id=":n15_13_0" index="0" disallow="tram rail_urban rail rail_electric ship" speed="27.78" length="26.28" shape="414.85,2804.35 414.33,2812.10 413.20,2817.35 412.07,2822.60 411.55,2830.35"/>
        <lane id=":n15_13_1" index="1" disallow="tram rail_urban rail rail_electric ship" speed="27.78" length="26.28" shape="411.55,2804.35 411.03,2812.10 409.90,2817.35 408.77,2822.60 408.25,2830.35"/>
        <lane id=":n15_13_2" index="2" disallow="tram rail_urban rail rail_electric ship" speed="27.78" length="26.28" shape="408.25,2804.35 407.73,2812.10 406.60,2817.35 405.47,2822.60 404.95,2830.35"/>
        <lane id=":n15_13_3" index="3" disallow="tram rail_urban rail rail_electric ship" speed="27.78" length="26.28" shape="404.95,2804.35 404.43,2812.10 403.30,2817.35 402.17,2822.60 401.65,2830.35"/>
    </edge>
    <edge id=":n15_17" function="internal">
        <lane id=":n15_17_0" index="0" disallow="tram rail_urban rail rail_electric ship" speed="27.78" length="8.55" shape="401.65,2804.35 400.22,2811.48 399.39,2812.46"/>
    </edge>
    <edge id=":n15_18" function="internal">
        <lane id=":n15_18_0" index="0" disallow="tram rail_urban rail rail_electric ship" speed="27.78" length="2.58" shape="401.65,2804.35 400.83,2805.59 400.00,2806.00 399.85,2805.92"/>
    </edge>
    <edge id=":n15_28" function="internal">
        <lane id=":n15_28_0" index="0" speed="27.78" length="23.23" shape="399.39,2812.46 395.92,2816.57 388.77,2819.63 378.75,2820.65"/>
    </edge>
    <edge id=":n15_29" function="internal">
        <lane id=":n15_29_0" index="0" speed="27.78" length="2.24" shape="399.85,2805.92 399.18,2805.59 398.35,2804.35"/>
    </edge>
    <edge id=":n15_19" function="internal">
        <lane id=":n15_19_0" index="0" disallow="tram rail_urban rail rail_electric ship" speed="27.78" length="10.88" shape="378.75,2807.45 382.99,2807.26 386.03,2806.67 387.84,2805.71 388.45,2804.35"/>
    </edge>
    <edge id=":n15_20" function="internal">
        <lane id=":n15_20_0" index="0" disallow="tram rail_urban rail rail_electric ship" speed="27.78" length="43.10" shape="378.75,2807.45 392.42,2808.48 403.75,2810.75 413.20,2813.02 421.25,2814.05"/>
        <lane id=":n15_20_1" index="1" disallow="tram rail_urban rail rail_electric ship" speed="27.78" length="43.10" shape="378.75,2810.75 392.42,2811.78 403.75,2814.05 413.20,2816.32 421.25,2817.35"/>
    </edge>
    <edge id=":n15_22" function="internal">
        <lane id=":n15_22_0" index="0" disallow="tram rail_urban rail rail_electric ship" speed="27.78" length="21.01" shape="378.75,2814.05 388.77,2815.07 395.92,2818.13 397.96,2820.54"/>
    </edge>
    <edge id=":n15_23" function="internal">
        <lane id=":n15_23_0" index="0" disallow="tram rail_urban rail rail_electric ship" speed="27.78" length="2.60" shape="378.75,2817.35 379.99,2818.17 380.40,2819.00 380.32,2819.17"/>
    </edge>
    <edge id=":n15_30" function="internal">
        <lane id=":n15_30_0" index="0" speed="27.78" length="10.78" shape="397.96,2820.54 400.22,2823.22 401.65,2830.35"/>
    </edge>
    <edge id=":n15_31" function="internal">
        <lane id=":n15_31_0" index="0" speed="27.78" length="2.22" shape="380.32,2819.17 379.99,2819.82 378.75,2820.65"/>
    </edge>
    <edge id=":n16_0" function="internal">
        <lane id=":n16_0_0" index="0" disallow="tram rail_urban rail rail_electric ship" speed="27.78" length="4.82" shape="800.00,2817.35 801.24,2818.17 801.65,2819.00 801.24,2819.82 800.00,2820.65"/>
    </edge>
    <edge id=":n17_0" function="internal">
        <lane id=":n17_0_0" index="0" disallow="tram rail_urban rail rail_electric ship" speed="27.78" length="4.82" shape="0.00,3180.65 -1.24,3179.83 -1.65,3179.00 -1.24,3178.18 0.00,3177.35"/>
    </edge>
    <edge id=":n18_0" function="internal">
        <lane id=":n18_0_0" index="0" disallow="tram rail_urban rail rail_electric ship" speed="27.78" length="14.00" shape="385.15,3193.65 384.96,3187.96 384.37,3183.90 383.41,3181.46 382.05,3180.65"/>
    </edge>
    <edge id=":n18_1" function="internal">
        <lane id=":n18_1_0" index="0" disallow="tram rail_urban rail rail_electric ship" speed="27.78" length="23.02" shape="385.15,3193.65 385.67,3186.88 386.80,3182.30 387.93,3177.72 388.45,3170.95"/>
        <lane id=":n18_1_1" index="1" disallow="tram rail_urban rail rail_electric ship" speed="27.78" length="23.02" shape="388.45,3193.65 388.97,3186.88 390.10,3182.30 391.23,3177.72 391.75,3170.95"/>
        <lane id=":n18_1_2" index="2" disallow="tram rail_urban rail rail_electric ship" speed="27.78" length="23.02" shape="391.75,3193.65 392.27,3186.88 393.40,3182.30 394.53,3177.72 395.05,3170.95"/>
        <lane id=":n18_1_3" index="3" disallow="tram rail_urban rail rail_electric ship" speed="27.78" length="23.02" shape="395.05,3193.65 395.57,3186.88 396.70,3182.30 397.83,3177.72 398.35,3170.95"/>
    </edge>
    <edge id=":n18_5" function="internal">
        <lane id=":n18_5_0" index="0" disallow="tram rail_urban rail rail_electric ship" speed="27.78" length="9.09" shape="398.35,3193.65 399.78,3186.52 400.95,3185.13"/>
    </edge>
    <edge id=":n18_6" function="internal">
        <lane id=":n18_6_0" index="0" disallow="tram rail_urban rail rail_electric ship" speed="27.78" length="2.59" shape="398.35,3193.65 399.17,3192.41 400.00,3192.00 400.16,3192.08"/>
    </edge>
    <edge id=":n18_22" function="internal">
        <lane id=":n18_22_0" index="0" speed="27.78" length="22.70" shape="400.95,3185.13 404.08,3181.43 411.23,3178.37 421.25,3177.35"/>
    </edge>
    <edge id=":n18_23" function="internal">
        <lane id=":n18_23_0" index="0" speed="27.78" length="2.23" shape="400.16,3192.08 400.82,3192.41 401.65,3193.65"/>
    </edge>
    <edge id=":n18_7" function="internal">
        <lane id=":n18_7_0" index="0" disallow="tram rail_urban rail rail_electric ship" speed="27.78" length="10.88" shape="421.25,3190.55 417.01,3190.74 413.97,3191.33 412.16,3192.29 411.55,3193.65"/>
    </edge>
    <edge id=":n18_8" function="internal">
        <lane id=":n18_8_0" index="0" disallow="tram rail_urban rail rail_electric ship" speed="27.78" length="39.85" shape="421.25,3187.25 407.44,3186.22 396.07,3183.95 387.49,3181.68 382.05,3180.65"/>
    </edge>
    <edge id=":n18_9" function="internal">
        <lane id=":n18_9_0" index="0" disallow="tram rail_urban rail rail_electric ship" speed="27.78" length="20.16" shape="421.25,3183.95 411.23,3183.14 404.08,3180.70 402.23,3178.95"/>
    </edge>
    <edge id=":n18_10" function="internal">
        <lane id=":n18_10_0" index="0" disallow="tram rail_urban rail rail_electric ship" speed="27.78" length="2.41" shape="421.25,3180.65 420.01,3179.83 419.60,3179.00"/>
    </edge>
    <edge id=":n18_24" function="internal">
        <lane id=":n18_24_0" index="0" speed="27.78" length="9.23" shape="402.23,3178.95 399.78,3176.64 398.35,3170.95"/>
    </edge>
    <edge id=":n18_25" function="internal">
        <lane id=":n18_25_0" index="0" speed="27.78" length="2.41" shape="419.60,3179.00 420.01,3178.18 421.25,3177.35"/>
    </edge>
    <edge id=":n18_11" function="internal">
        <lane id=":n18_11_0" index="0" disallow="tram rail_urban rail rail_electric ship" speed="27.78" length="5.00" shape="418.15,3170.95 418.34,3172.31 418.92,3173.28 419.89,3173.86 421.25,3174.05"/>
    </edge>
    <edge id=":n18_12" function="internal">
        <lane id=":n18_12_0" index="0" disallow="tram rail_urban rail rail_electric ship" speed="27.78" length="23.02" shape="414.85,3170.95 414.33,3177.72 413.20,3182.30 412.07,3186.88 411.55,3193.65"/>
        <lane id=":n18_12_1" index="1" disallow="tram rail_urban rail rail_electric ship" speed="27.78" length="23.02" shape="411.55,3170.95 411.03,3177.72 409.90,3182.30 408.77,3186.88 408.25,3193.65"/>
        <lane id=":n18_12_2" index="2" disallow="tram rail_urban rail rail_electric ship" speed="27.78" length="23.02" shape="408.25,3170.95 407.73,3177.72 406.60,3182.30 405.47,3186.88 404.95,3193.65"/>
        <lane id=":n18_12_3" index="3" disallow="tram rail_urban rail rail_electric ship" speed="27.78" length="23.02" shape="404.95,3170.95 404.43,3177.72 403.30,3182.30 402.17,3186.88 401.65,3193.65"/>
    </edge>
    <edge id=":n18_16" function="internal">
        <lane id=":n18_16_0" index="0" disallow="tram rail_urban rail rail_electric ship" speed="27.78" length="5.51" shape="401.65,3170.95 400.43,3175.19 399.58,3175.89"/>
    </edge>
    <edge id=":n18_17" function="internal">
        <lane id=":n18_17_0" index="0" disallow="tram rail_urban rail rail_electric ship" speed="27.78" length="2.59" shape="401.65,3170.95 400.83,3172.19 400.00,3172.60 399.84,3172.52"/>
    </edge>
    <edge id=":n18_26" function="internal">
        <lane id=":n18_26_0" index="0" speed="27.78" length="18.65" shape="399.58,3175.89 396.75,3178.22 390.62,3180.04 382.05,3180.65"/>
    </edge>
    <edge id=":n18_27" function="internal">
        <lane id=":n18_27_0" index="0" speed="27.78" length="2.23" shape="399.84,3172.52 399.18,3172.19 398.35,3170.95"/>
    </edge>
    <edge id=":n18_18" function="internal">
        <lane id=":n18_18_0" index="0" disallow="tram rail_urban rail rail_electric ship" speed="27.78" length="10.32" shape="382.05,3177.35 384.85,3176.95 386.85,3175.75 388.05,3173.75 388.45,3170.95"/>
    </edge>
    <edge id=":n18_19" function="internal">
        <lane id=":n18_19_0" index="0" disallow="tram rail_urban rail rail_electric ship" speed="27.78" length="39.20" shape="382.05,3177.35 421.25,3177.35"/>
    </edge>
    <edge id=":n18_20" function="internal">
        <lane id=":n18_20_0" index="0" disallow="tram rail_urban rail rail_electric ship" speed="27.78" length="16.96" shape="382.05,3177.35 390.62,3178.37 396.75,3181.42 397.62,3182.63"/>
    </edge>
    <edge id=":n18_21" function="internal">
        <lane id=":n18_21_0" index="0" disallow="tram rail_urban rail rail_electric ship" speed="27.78" length="2.75" shape="382.05,3177.35 383.29,3178.17 383.70,3179.00 383.55,3179.31"/>
    </edge>
    <edge id=":n18_28" function="internal">
        <lane id=":n18_28_0" index="0" speed="27.78" length="12.03" shape="397.62,3182.63 400.42,3186.52 401.65,3193.65"/>
    </edge>
    <edge id=":n18_29" function="internal">
        <lane id=":n18_29_0" index="0" speed="27.78" length="2.07" shape="383.55,3179.31 383.29,3179.82 382.05,3180.65"/>
    </edge>
    <edge id=":n19_0" function="internal">
        <lane id=":n19_0_0" index="0" disallow="tram rail_urban rail rail_electric ship" speed="27.78" length="4.82" shape="800.00,3177.35 801.24,3178.17 801.65,3179.00 801.24,3179.82 800.00,3180.65"/>
    </edge>
    <edge id=":n2_0" function="internal">
        <lane id=":n2_0_0" index="0" disallow="tram rail_urban rail rail_electric ship" speed="27.78" length="4.82" shape="0.00,401.65 -1.24,400.83 -1.65,400.00 -1.24,399.18 0.00,398.35"/>
    </edge>
    <edge id=":n20_0" function="internal">
        <lane id=":n20_0_0" index="0" disallow="tram rail_urban rail rail_electric ship" speed="27.78" length="4.82" shape="0.00,3750.65 -1.24,3749.82 -1.65,3749.00 -1.24,3748.18 0.00,3747.35"/>
    </edge>
    <edge id=":n21_0" function="internal">
        <lane id=":n21_0_0" index="0" disallow="tram rail_urban rail rail_electric ship" speed="27.78" length="10.88" shape="381.85,3766.95 381.66,3762.71 381.08,3759.68 380.11,3757.86 378.75,3757.25"/>
    </edge>
    <edge id=":n21_1" function="internal">
        <lane id=":n21_1_0" index="0" disallow="tram rail_urban rail rail_electric ship" speed="27.78" length="45.92" shape="385.15,3766.95 388.45,3721.15"/>
        <lane id=":n21_1_1" index="1" disallow="tram rail_urban rail rail_electric ship" speed="27.78" length="45.92" shape="388.45,3766.95 391.75,3721.15"/>
        <lane id=":n21_1_2" index="2" disallow="tram rail_urban rail rail_electric ship" speed="27.78" length="45.92" shape="391.75,3766.95 395.05,3721.15"/>
        <lane id=":n21_1_3" index="3" disallow="tram rail_urban rail rail_electric ship" speed="27.78" length="45.92" shape="395.05,3766.95 398.35,3721.15"/>
    </edge>
    <edge id=":n21_5" function="internal">
        <lane id=":n21_5_0" index="0" disallow="tram rail_urban rail rail_electric ship" speed="27.78" length="10.41" shape="398.35,3766.95 399.78,3758.37 400.76,3756.97"/>
    </edge>
    <edge id=":n21_6" function="internal">
        <lane id=":n21_6_0" index="0" disallow="tram rail_urban rail rail_electric ship" speed="27.78" length="2.59" shape="398.35,3766.95 399.17,3765.71 400.00,3765.30 400.16,3765.38"/>
    </edge>
    <edge id=":n21_27" function="internal">
        <lane id=":n21_27_0" index="0" speed="27.78" length="23.90" shape="400.76,3756.97 404.08,3752.25 411.23,3748.57 421.25,3747.35"/>
    </edge>
    <edge id=":n21_28" function="internal">
        <lane id=":n21_28_0" index="0" speed="27.78" length="2.23" shape="400.16,3765.38 400.82,3765.71 401.65,3766.95"/>
    </edge>
    <edge id=":n21_7" function="internal">